Database/datos190n.m
bus=[1    1.000  0.000    7.577    0.000    0.000    0.000    0.000    0.000  1
  2    1.000  0.000    5.400    0.000    0.000    0.000    0.000    0.000  2
  3    1.000  0.000    6.000    0.000    0.000    0.000    0.000    0.000  2
  4    1.000  0.000    7.980    0.000    0.000    0.000    0.000    0.000  2
  5    1.000  0.000    3.900    0.000    0.000    0.000    0.000    0.000  2
  6    1.000  0.000    2.400    0.000    0.000    0.000    0.000    0.000  2
  7    1.000  0.000    3.000    0.000    0.000    0.000    0.000    0.000  2
  8    1.000  0.000    1.200    0.000    0.000    0.000    0.000    0.000  2
  9    1.000  0.000    5.400    0.000    0.000    0.000    0.000    0.000  2
 10    1.000  0.000    2.700    0.000    0.000    0.000    0.000    0.000  2
 11    1.000  0.000    0.600    0.000    0.000    0.000    0.000    0.000  2
 12    1.000  0.000    0.900    0.000    0.000    0.000    0.000    0.000  2
 13    1.000  0.000    0.600    0.000    0.000    0.000    0.000    0.000  2
 14    1.000  0.000    0.300    0.000    0.000    0.000    0.000    0.000  2
 15    1.000  0.000    5.520    0.000    0.000    0.000    0.000    0.000  2
 16    1.000  0.000    1.200    0.000    0.000    0.000    0.000    0.000  2
 17    1.000  0.000    1.140    0.000    0.000    0.000    0.000    0.000  2
 18    1.000  0.000    3.000    0.000    0.000    0.000    0.000    0.000  2
 19    1.000  0.000    2.700    0.000    0.000    0.000    0.000    0.000  2
 20    1.000  0.000    0.900    0.000    0.000    0.000    0.000    0.000  2
 21    1.000  0.000    0.600    0.000    0.000    0.000    0.000    0.000  2
 22    1.000  0.000    1.440    0.000    0.000    0.000    0.000    0.000  2
 23    1.000  0.000    1.020    0.000    0.000    0.000    0.000    0.000  2
 24    1.000  0.000    3.600    0.000    0.000    0.000    0.000    0.000  2
 25    1.000  0.000    1.080    0.000    0.000    0.000    0.000    0.000  2
 26    1.000  0.000    0.840    0.000    0.000    0.000    0.000    0.000  2
 27    1.000  0.000    1.800    0.000    0.000    0.000    0.000    0.000  2
 28    1.000  0.000    0.186    0.000    0.000    0.000    0.000    0.000  2
 29    1.000  0.000    0.546    0.000    0.000    0.000    0.000    0.000  2
 30    1.000  0.000    1.740    0.000    0.000    0.000    0.000    0.000  2
 31    1.000  0.000    1.800    0.000    0.000    0.000    0.000    0.000  2
 32    1.000  0.000    1.350    0.000    0.000    0.000    0.000    0.000  2
 33    1.000  0.000    1.350    0.000    0.000    0.000    0.000    0.000  2
 34    1.000  0.000    1.680    0.000    0.000    0.000    0.000    0.000  2
 35    1.000  0.000    5.400    0.000    0.000    0.000    0.000    0.000  2
 36    1.000  0.000    4.200    0.000    0.000    0.000    0.000    0.000  2
 37    1.000  0.000    3.480    0.000    0.000    0.000    0.000    0.000  2
 38    1.000  0.000    3.480    0.000    0.000    0.000    0.000    0.000  2
 39    1.000  0.000    6.000    0.000    0.000    0.000    0.000    0.000  2
 40    1.000  0.000    1.740    0.000    0.000    0.000    0.000    0.000  2
 41    1.000  0.000    0.360    0.000    0.000    0.000    0.000    0.000  2
 42    1.000  0.000    0.180    0.000    0.000    0.000    0.000    0.000  2
 43    1.000  0.000    0.660    0.000    0.000    0.000    0.000    0.000  2
 44    1.000  0.000    1.200    0.000    0.000    0.000    0.000    0.000  2
 45    1.000  0.000    3.000    0.000    0.000    0.000    0.000    0.000  2
 46    1.000  0.000    1.380    0.000    0.000    0.000    0.000    0.000  2
 47    1.000  0.000    0.000    0.000    0.000    0.000    0.000    0.000  3
 48    1.000  0.000    0.000    0.000    0.798    0.258    0.000    0.000  3
 49    1.000  0.000    0.000    0.000    0.768    0.252    0.000   -1.750  3
 50    1.000  0.000    0.000    0.000    2.286    0.750    0.000    0.000  3
 51    1.000  0.000    0.000    0.000    3.744    1.230    0.000   -0.410  3
 52    1.000  0.000    0.000    0.000    0.000    0.000    0.000    0.000  3
 53    1.000  0.000    0.000    0.000    0.000    0.000    0.000    0.000  3
 54    1.000  0.000    0.000    0.000    0.000    0.000    0.000    0.000  3
 55    1.000  0.000    0.000    0.000    0.000    0.000    0.000    0.000  3
 56    1.000  0.000    0.000    0.000    0.000    0.000    0.000    0.000  3
 57    1.000  0.000    0.000    0.000    0.000    0.000    0.000    0.000  3
 58    1.000  0.000    0.000    0.000    1.590    0.522    0.000    0.000  3
 59    1.000  0.000    0.000    0.000    0.000    0.000    0.000   -0.820  3
 60    1.000  0.000    0.000    0.000    0.000    0.000    0.000    0.000  3
 61    1.000  0.000    0.000    0.000    0.510    0.168    0.000    0.000  3
 62    1.000  0.000    0.000    0.000    0.630    0.206    0.000    0.000  3
 63    1.000  0.000    0.000    0.000    1.014    0.336    0.000    0.000  3
 64    1.000  0.000    0.000    0.000    0.000    0.000    0.000   -0.672  3
 65    1.000  0.000    0.000    0.000    0.534    0.174    0.000    0.000  3
 66    1.000  0.000    0.000    0.000    2.400    0.786    0.000    0.000  3
 67    1.000  0.000    0.000    0.000    1.590    0.522    0.000    0.000  3
 68    1.000  0.000    0.000    0.000    0.600    0.198    0.000    0.000  3
 69    1.000  0.000    0.000    0.000    0.000    0.000    0.000    0.000  3
 70    1.000  0.000    0.000    0.000    1.404    0.462    0.000    0.000  3
 71    1.000  0.000    0.000    0.000    0.972    0.330    0.000   -0.672  3
 72    1.000  0.000    0.000    0.000    0.948    0.312    0.000    0.000  3
 73    1.000  0.000    0.000    0.000    0.000    0.000    0.000    0.000  3
 74    1.000  0.000    0.000    0.000    0.000    0.000    0.000    0.000  3
 75    1.000  0.000    0.000    0.000    0.000    0.000    0.000   -1.200  3
 76    1.000  0.000    0.000    0.000    0.000    0.000    0.000    0.000  3
 77    1.000  0.000    0.000    0.000    0.480    0.162    0.000   -1.500  3
 78    1.000  0.000    0.000    0.000    0.000    0.000    0.000    0.000  3
 79    1.000  0.000    0.000    0.000    0.486    0.162    0.000    0.000  3
 80    1.000  0.000    0.000    0.000    1.080    0.354    0.000    0.000  3
 81    1.000  0.000    0.000    0.000    0.852    0.282    0.000    0.000  3
 82    1.000  0.000    0.000    0.000    0.000    0.000    0.000    0.000  3
 83    1.000  0.000    0.000    0.000    3.024    0.996    0.000    0.000  3
 84    1.000  0.000    0.000    0.000    0.360    0.120    0.000    0.000  3
 85    1.000  0.000    0.000    0.000    0.000    0.000    0.000    0.000  3
 86    1.000  0.000    0.000    0.000    1.140    0.372    0.000   -1.888  3
 87    1.000  0.000    0.000    0.000    2.730    0.894    0.000    0.000  3
 88    1.000  0.000    0.000    0.000    0.000    0.000    0.000    0.000  3
 89    1.000  0.000    0.000    0.000    0.180    0.060    0.000   -0.750  3
 90    1.000  0.000    0.000    0.000    0.000    0.000    0.000    0.000  3
 91    1.000  0.000    0.000    0.000    1.212    0.402    0.000    0.000  3
 92    1.000  0.000    0.000    0.000    0.000    0.000    0.000    0.000  3
 93    1.000  0.000    0.000    0.000    3.372    1.110    0.000    0.000  3
 94    1.000  0.000    0.000    0.000    1.002    0.330    0.000    0.000  3
 95    1.000  0.000    0.000    0.000    0.426    0.138    0.000    0.000  3
 96    1.000  0.000    0.000    0.000    4.446    1.620    0.000    0.000  3
 97    1.000  0.000    0.000    0.000    0.000    0.000    0.000    0.000  3
 98    1.000  0.000    0.000    0.000    0.000    0.000    0.000    0.000  3
 99    1.000  0.000    0.000    0.000    0.000    0.000    0.000    0.000  3
100    1.000  0.000    0.000    0.000    2.352    0.774    0.000    0.000  3
101    1.000  0.000    0.000    0.000    0.480    0.156    0.000    0.000  3
102    1.000  0.000    0.000    0.000    0.000    0.000    0.000    0.000  3
103    1.000  0.000    0.000    0.000    3.720    1.224    0.000    0.000  3
104    1.000  0.000    0.000    0.000    0.000    0.000    0.000    0.000  3
105    1.000  0.000    0.000    0.000    1.740    0.570    0.000    0.000  3
106    1.000  0.000    0.000    0.000    1.302    0.432    0.000    0.000  3
107    1.000  0.000    0.000    0.000    0.000    0.000    0.000    0.000  3
108    1.000  0.000    0.000    0.000    0.228    0.078    0.000    0.000  3
109    1.000  0.000    0.000    0.000    3.504    1.152    0.000    0.000  3
110    1.000  0.000    0.000    0.000    0.000    0.000    0.000   -1.850  3
111    1.000  0.000    0.000    0.000    3.336    0.444    0.000    0.000  3
112    1.000  0.000    0.000    0.000    1.242    0.360    0.000    0.000  3
113    1.000  0.000    0.000    0.000    1.608    0.528    0.000    0.000  3
114    1.000  0.000    0.000    0.000    0.000    0.000    0.000   -1.522  3
115    1.000  0.000    0.000    0.000    0.000    0.000    0.000    0.000  3
116    1.000  0.000    0.000    0.000    1.776    0.516    0.000    0.000  3
117    1.000  0.000    0.000    0.000    1.776    0.516    0.000    0.000  3
118    1.000  0.000    0.000    0.000    0.000    0.000    0.000   -0.772  3
119    1.000  0.000    0.000    0.000    1.776    0.516    0.000    0.000  3
120    1.000  0.000    0.000    0.000    1.782    0.522    0.000    0.000  3
121    1.000  0.000    0.000    0.000    0.000    0.000    0.000   -0.700  3
122    1.000  0.000    0.000    0.000    2.526    0.738    0.000    0.000  3
123    1.000  0.000    0.000    0.000    1.182    0.342    0.000    0.000  3
124    1.000  0.000    0.000    0.000    0.000    0.000    0.000    0.000  3
125    1.000  0.000    0.000    0.000    2.880    0.840    0.000    0.000  3
126    1.000  0.000    0.000    0.000    1.710    0.498    0.000    0.000  3
127    1.000  0.000    0.000    0.000    0.000    0.000    0.000   -1.200  3
128    1.000  0.000    0.000    0.000    1.002    0.294    0.000    0.000  3
129    1.000  0.000    0.000    0.000    2.790    0.930    0.000    0.000  3
130    1.000  0.000    0.000    0.000    0.000    0.000    0.000    0.000  3
131    1.000  0.000    0.000    0.000    3.162    0.924    0.000    0.000  3
132    1.000  0.000    0.000    0.000    1.506    0.438    0.000    0.000  3
133    1.000  0.000    0.000    0.000    0.000    0.000    0.000    0.000  3
134    1.000  0.000    0.000    0.000    0.000    0.000    0.000    0.000  3
135    1.000  0.000    0.000    0.000    0.930    0.306    0.000    0.000  3
136    1.000  0.000    0.000    0.000    0.000    0.000    0.000    0.000  3
137    1.000  0.000    0.000    0.000    1.338    0.444    0.000    0.000  3
138    1.000  0.000    0.000    0.000    0.348    0.114    0.000    0.000  3
139    1.000  0.000    0.000    0.000    0.588    0.192    0.000    0.000  3
140    1.000  0.000    0.000    0.000    0.354    0.114    0.000    0.000  3
141    1.000  0.000    0.000    0.000    0.000    0.000    0.000    0.000  3
142    1.000  0.000    0.000    0.000    1.026    0.324    0.000    0.000  3
143    1.000  0.000    0.000    0.000    0.234    0.078    0.000    0.000  3
144    1.000  0.000    0.000    0.000    0.000    0.000    0.000    0.000  3
145    1.000  0.000    0.000    0.000    0.480    0.156    0.000    0.000  3
146    1.000  0.000    0.000    0.000    0.000    0.000    0.000    0.000  3
147    1.000  0.000    0.000    0.000    0.600    0.204    0.000    0.000  3
148    1.000  0.000    0.000    0.000    0.750    0.246    0.000    0.000  3
149    1.000  0.000    0.000    0.000    0.300    0.102    0.000    0.000  3
150    1.000  0.000    0.000    0.000    1.086    0.384    0.000    0.000  3
151    1.000  0.000    0.000    0.000    0.108    0.036    0.000    0.000  3
152    1.000  0.000    0.000    0.000    0.996    0.330    0.000    0.000  3
153    1.000  0.000    0.000    0.000    0.450    0.150    0.000    0.000  3
154    1.000  0.000    0.000    0.000    0.582    0.192    0.000    0.000  3
155    1.000  0.000    0.000    0.000    0.432    0.144    0.000    0.000  3
156    1.000  0.000    0.000    0.000    0.948    0.318    0.000    0.000  3
157    1.000  0.000    0.000    0.000    0.000    0.000    0.000    0.000  3
158    1.000  0.000    0.000    0.000    0.000    0.000    0.000   -1.550  3
159    1.000  0.000    0.000    0.000    0.000    0.000    0.000   -1.200  3
160    1.000  0.000    0.000    0.000    0.912    0.306    0.000    0.000  3
161    1.000  0.000    0.000    0.000    0.000    0.000    0.000    0.000  3
162    1.000  0.000    0.000    0.000    0.834    0.276    0.000    0.000  3
163    1.000  0.000    0.000    0.000    0.300    0.102    0.000   -1.800  3
164    1.000  0.000    0.000    0.000    0.300    0.102    0.000    0.000  3
165    1.000  0.000    0.000    0.000    0.408    0.192    0.000   -1.544  3
166    1.000  0.000    0.000    0.000    0.000    0.000    0.000   -1.200  3
167    1.000  0.000    0.000    0.000    0.390    0.126    0.000    0.000  3
168    1.000  0.000    0.000    0.000    0.882    0.288    0.000    0.000  3
169    1.000  0.000    0.000    0.000    0.000    0.000    0.000   -1.800  3
170    1.000  0.000    0.000    0.000    0.342    0.114    0.000    0.000  3
171    1.000  0.000    0.000    0.000    0.000    0.000    0.000    0.000  3
172    1.000  0.000    0.000    0.000    0.150    0.048    0.000    0.000  3
173    1.000  0.000    0.000    0.000    0.546    0.180    0.000    0.000  3
174    1.000  0.000    0.000    0.000    0.150    0.048    0.000    0.000  3
175    1.000  0.000    0.000    0.000    0.840    0.276    0.000    0.000  3
176    1.000  0.000    0.000    0.000    0.228    0.078    0.000    0.000  3
177    1.000  0.000    0.000    0.000    0.000    0.000    0.000    0.000  3
178    1.000  0.000    0.000    0.000    0.672    0.222    0.000    0.000  3
179    1.000  0.000    0.000    0.000    0.660    0.222    0.000    0.000  3
180    1.000  0.000    0.000    0.000    2.730    0.912    0.000    0.000  3
181    1.000  0.000    0.000    0.000    0.000    0.000    0.000    0.000  3
182    1.000  0.000    0.000    0.000    0.396    0.132    0.000   -1.700  3
183    1.000  0.000    0.000    0.000    1.272    0.426    0.000    0.000  3
184    1.000  0.000    0.000    0.000    0.372    0.120    0.000    0.000  3
185    1.000  0.000    0.000    0.000    0.000    0.000    0.000   -0.700  3
186    1.000  0.000    0.000    0.000    0.480    0.156    0.000    0.000  3
187    1.000  0.000    0.000    0.000    0.000    0.000    0.000    0.000  3
188    1.000  0.000    0.000    0.000    0.000    0.000    0.000    0.000  3
189    1.000  0.000    0.000    0.000    0.000    0.000    0.000    0.000  3
190    1.000  0.000    0.000    0.000    1.776    0.516    0.000    0.000  3];


line=[
   
 48  49   0.0007   0.0086   0.9714   0.0000   0.0000
 49  50   0.0005   0.0063   0.7192   0.0000   0.0000
 50  52   0.0028   0.0338   0.9878   0.0000   0.0000
 52  51   0.0000  -0.0101   0.0000   0.0000   0.0000
 50  52   0.0028   0.0338   0.9878   0.0000   0.0000
 52  51   0.0000  -0.0101   0.0000   0.0000   0.0000
 50  52   0.0028   0.0338   0.9878   0.0000   0.0000
 52  51   0.0000  -0.0101   0.0000   0.0000   0.0000
 49  56   0.0022   0.0266   3.3358   0.0000   0.0000
 57  53   0.0014   0.0177   2.1908   0.0000   0.0000
 57  56   0.0000  -0.0083   0.0000   0.0000   0.0000
 51  55   0.0041   0.0552   1.4440   0.0000   0.0000
 53  55   0.0000  -0.0259   0.0000   0.0000   0.0000
 53  69   0.0042   0.0574   1.4215   0.0000   0.0000
 51  55   0.0041   0.0552   1.4440   0.0000   0.0000
 53  55   0.0000  -0.0259   0.0000   0.0000   0.0000
 53  69   0.0042   0.0574   1.4215   0.0000   0.0000
 70  83   0.0062   0.0381   0.2875   0.0000   0.0000
 69  64   0.0000  -0.0270   0.0000   0.0000   0.0000
 69  64   0.0000  -0.0270   0.0000   0.0000   0.0000
 53  73   0.0038   0.0531   1.3141   0.0000   0.0000
 71  73   0.0000  -0.0249   0.0000   0.0000   0.0000
 71  74   0.0000  -0.0124   0.0000   0.0000   0.0000
 71  64   0.0008   0.0920   0.2688   0.0000   0.0000
 74  59   0.0025   0.0317   0.9003   0.0000   0.0000
 59  92   0.0003   0.0039   0.4570   0.0000   0.0000
 64  78   0.0017   0.0230   0.5910   0.0000   0.0000
 64  78   0.0017   0.0230   0.5910   0.0000   0.0000
 75  89   0.0041   0.0530   1.5312   0.0000   0.0000
 75  86   0.0020   0.0263   3.0350   0.0000   0.0000
 75  84   0.0028   0.0345   1.0080   0.0000   0.0000
 75  77   0.0014   0.0176   0.5009   0.0000   0.0000
 77  78   0.0048   0.0577   1.5960   0.0000   0.0000
 77  78   0.0048   0.0577   1.5960   0.0000   0.0000
 89  78   0.0015   0.0181   0.5429   0.0000   0.0000
 89  78   0.0015   0.0181   0.5429   0.0000   0.0000
 87  80   0.0315   0.1113   0.4645   0.0000   0.0000
 80  76   0.0007   0.0046   0.0088   0.0000   0.0000
 80  81   0.0097   0.0642   0.1210   0.0000   0.0000
 81  68   0.0168   0.1116   0.2105   0.0000   0.0000
 68  65   0.0070   0.0465   0.0967   0.0000   0.0000
 68  72   0.0176   0.1179   0.2233   0.0000   0.0000
 68  88   0.0126   0.0837   0.1579   0.0000   0.0000
 68  96   0.0151   0.1004   0.1894   0.0000   0.0000
 97  96   0.0072   0.0567   0.4608   0.0000   0.0000
 97  76   0.0068   0.0455   0.3446   0.0000   0.0000
 82  76   0.0124   0.0836   0.1582   0.0000   0.0000
 85  83   0.0056   0.0372   0.2806   0.0000   0.0000
 83  54   0.0081   0.0497   0.3751   0.0000   0.0000
 82  81   0.0049   0.0326   0.0614   0.0000   0.0000
 82  68   0.0154   0.1024   0.1930   0.0000   0.0000
 84  64   0.0042   0.0513   1.4984   0.0000   0.0000
 84  71   0.0040   0.0508   1.4369   0.0000   0.0000
182  86   0.0016   0.0234   2.4142   0.0000   0.0000
182 185   0.0046   0.0584   1.6584   0.0000   0.0000
185 184   0.0020   0.0253   0.7175   0.0000   0.0000
184 182   0.0037   0.0465   1.3199   0.0000   0.0000
 78  92   0.0004   0.0044   0.5286   0.0000   0.0000
 89  98   0.0005   0.0062   0.7374   0.0000   0.0000
 90 109   0.0105   0.0698   0.1315   0.0000   0.0000
 90 131   0.0213   0.1263   0.2354   0.0000   0.0000
 88  96   0.0015   0.0088   0.0735   0.0000   0.0000
 88  79   0.0046   0.0347   0.0702   0.0000   0.0000
 91  79   0.0022   0.0165   0.0334   0.0000   0.0000
 91  90   0.0021   0.0135   0.1052   0.0000   0.0000
 93  96   0.0043   0.0344   0.0691   0.0000   0.0000
 93  62   0.0015   0.0120   0.0270   0.0000   0.0000
 93  95   0.0037   0.0305   0.0735   0.0000   0.0000
 93  94   0.0013   0.0104   0.0230   0.0000   0.0000
 94  96   0.0030   0.0242   0.0540   0.0000   0.0000
 96 131   0.0308   0.1771   0.3586   0.0000   0.0000
 98 102   0.0002   0.0027   0.3200   0.0000   0.0000
100  96   0.0013   0.0102   0.0920   0.0000   0.0000
100 109   0.0025   0.0194   0.0400   0.0000   0.0000
100 101   0.0020   0.0130   0.0246   0.0000   0.0000
101 109   0.0015   0.0102   0.0193   0.0000   0.0000
 67 107   0.0085   0.0567   0.4280   0.0000   0.0000
107 106   0.0085   0.0567   0.4280   0.0000   0.0000
107 108   0.0015   0.0187   0.2327   0.0000   0.0000
106  72   0.0181   0.1114   0.2103   0.0000   0.0000
106  60   0.0037   0.0251   0.1899   0.0000   0.0000
 62  60   0.0016   0.0123   0.0257   0.0000   0.0000
 61  60   0.0015   0.0114   0.0230   0.0000   0.0000
 95  60   0.0029   0.0219   0.0450   0.0000   0.0000
 65  72   0.0023   0.0139   0.1052   0.0000   0.0000
106 104   0.0092   0.0599   0.1131   0.0000   0.0000
104 109   0.0036   0.0242   0.0456   0.0000   0.0000
 63 109   0.0019   0.0148   0.0298   0.0000   0.0000
 63  61   0.0008   0.0065   0.0130   0.0000   0.0000
 63  60   0.0043   0.0330   0.0674   0.0000   0.0000
110 113   0.0023   0.0292   3.3168   0.0000   0.0000
110 111   0.0011   0.0143   0.4061   0.0000   0.0000
113 102   0.0009   0.0113   1.2860   0.0000   0.0000
103 102   0.0004   0.0042   0.1280   0.0000   0.0000
 59 103   0.0006   0.0065   0.1993   0.0000   0.0000
110 115   0.0038   0.0524   1.4892   0.0000   0.0000
114 115   0.0017   0.0215   0.6092   0.0000   0.0000
118 114   0.0005   0.0062   0.1754   0.0000   0.0000
118 124   0.0039   0.0501   1.4167   0.0000   0.0000
118 189   0.0013   0.0169   0.4738   0.0000   0.0000
118 120   0.0039   0.0503   1.4166   0.0000   0.0000
114 120   0.0044   0.0569   1.5841   0.0000   0.0000
120 115   0.0034   0.0441   1.2455   0.0000   0.0000
121 115   0.0020   0.0250   0.7107   0.0000   0.0000
127 121   0.0023   0.0298   0.8461   0.0000   0.0000
116 117   0.0015   0.0097   0.3130   0.0000   0.0000
116 190   0.0017   0.0116   0.3516   0.0000   0.0000
114 189   0.0009   0.0119   0.3384   0.0000   0.0000
189 124   0.0038   0.0429   1.2184   0.0000   0.0000
118 127   0.0043   0.0549   1.5516   0.0000   0.0000
119 117   0.0009   0.0058   0.1758   0.0000   0.0000
127 122   0.0173   0.1161   0.2198   0.0000   0.0000
119 122   0.0246   0.1653   0.3130   0.0000   0.0000
127 130   0.0015   0.0208   0.5869   0.0000   0.0000
130  89   0.0031   0.0394   1.1131   0.0000   0.0000
128 126   0.0056   0.0372   0.2806   0.0000   0.0000
128 123   0.0035   0.0233   0.0438   0.0000   0.0000
123 126   0.0109   0.0725   0.1368   0.0000   0.0000
126 125   0.0076   0.0502   0.3788   0.0000   0.0000
125 129   0.0104   0.0688   0.5192   0.0000   0.0000
128 131   0.0134   0.0785   0.1427   0.0000   0.0000
128 132   0.0070   0.0411   0.0747   0.0000   0.0000
131 129   0.0130   0.0865   0.6525   0.0000   0.0000
133 132   0.0132   0.0882   0.1670   0.0000   0.0000
117 190   0.0035   0.0232   0.1758   0.0000   0.0000
136 134   0.0298   0.2023   0.3888   0.0000   0.0000
134 135   0.0000  -0.0668   0.0000   0.0000   0.0000
135 138   0.0257   0.1735   0.3369   0.0000   0.0000
138 137   0.0018   0.0121   0.0914   0.0000   0.0000
158 141   0.0059   0.0756   2.1458   0.0000   0.0000
138 140   0.0016   0.0110   0.0851   0.0000   0.0000
139 140   0.0019   0.0128   0.0248   0.0000   0.0000
157 155   0.0032   0.0529   0.1002   0.0000   0.0000
137 139   0.0035   0.0233   0.0408   0.0000   0.0000
139 188   0.0146   0.0973   0.1834   0.0000   0.0000
188 187   0.0000  -0.0668   0.0000   0.0000   0.0000
137 142   0.0204   0.1358   1.0243   0.0000   0.0000
143 148   0.0055   0.0371   0.2813   0.0000   0.0000
143 148   0.0055   0.0371   0.2813   0.0000   0.0000
143 144   0.0241   0.1606   0.3049   0.0000   0.0000
148 153   0.0040   0.0269   0.0510   0.0000   0.0000
142 143   0.0047   0.0316   0.2393   0.0000   0.0000
146 153   0.0063   0.0423   0.3200   0.0000   0.0000
148 149   0.0024   0.0158   0.0299   0.0000   0.0000
149 153   0.0024   0.0158   0.0299   0.0000   0.0000
146 151   0.0050   0.0302   0.2307   0.0000   0.0000
151 150   0.0010   0.0068   0.0512   0.0000   0.0000
151 152   0.0079   0.0523   0.1042   0.0000   0.0000
152 150   0.0032   0.0214   0.0404   0.0000   0.0000
157 154   0.0090   0.0604   0.1143   0.0000   0.0000
154 155   0.0011   0.0074   0.0141   0.0000   0.0000
154 187   0.0146   0.0993   0.1925   0.0000   0.0000
157 160   0.0017   0.0112   0.0842   0.0000   0.0000
158 159   0.0005   0.0057   0.1624   0.0000   0.0000
185 183   0.0007   0.0093   0.2640   0.0000   0.0000
158 183   0.0006   0.0072   0.2031   0.0000   0.0000
169 158   0.0017   0.0207   2.4192   0.0000   0.0000
170 144   0.0132   0.1687   0.5237   0.0000   0.0000
170 168   0.0010   0.0070   0.0527   0.0000   0.0000
163 169   0.0019   0.0229   2.6746   0.0000   0.0000
164 161   0.0021   0.0189   0.1055   0.0000   0.0000
161 167   0.0052   0.0344   0.2596   0.0000   0.0000
167 168   0.0155   0.1032   0.1947   0.0000   0.0000
168 160   0.0259   0.1721   0.3245   0.0000   0.0000
164 171   0.0119   0.0791   0.5964   0.0000   0.0000
164 161   0.0029   0.0195   0.0369   0.0000   0.0000
172 173   0.0049   0.0179   0.0044   0.0000   0.0000
172 174   0.0785   0.2867   0.0712   0.0000   0.0000
173 174   0.0761   0.3091   0.0760   0.0000   0.0000
181 174   0.0130   0.4340   0.1116   0.0000   0.0000
178 176   0.0050   0.0295   0.0318   0.0000   0.0000
177 175   0.0017   0.0111   0.0844   0.0000   0.0000
174 178   0.0366   0.1420   0.1520   0.0000   0.0000
186 177   0.0319   0.2120   0.3999   0.0000   0.0000
185 159   0.0006   0.0072   0.2031   0.0000   0.0000
160 186   0.0034   0.0065   0.0144   0.0000   0.0000
165 166   0.0011   0.0139   3.5526   0.0000   0.0000
165 163   0.0001   0.0007   0.0203   0.0000   0.0000
159 166   0.0014   0.0178   2.0304   0.0000   0.0000
185 159   0.0030   0.0384   1.0898   0.0000   0.0000
179 186   0.0045   0.0085   0.1940   0.0000   0.0000
 53  47   0.0000   0.0010   0.0000   0.0000   0.0000
 48   2   0.0000   0.0057   0.0000   0.0000   0.0000
 49   1   0.0000   0.0065   0.0000   0.0000   0.0000
 50   3   0.0000   0.0042   0.0000   0.0000   0.0000
 50   6   0.0000   0.0157   0.0000   0.0000   0.0000
 56  58   0.0000   0.0291   0.0000   0.0000   0.0000
 53  54   0.0000   0.0275   0.0000   0.9750   0.0000
 59  60   0.0000   0.0145   0.0000   0.9700   0.0000
 64  65   0.0000   0.0291   0.0000   1.0250   0.0000
 64  66   0.0000   0.0170   0.0000   0.9700   0.0000
 75  76   0.0000   0.0095   0.0000   0.0000   0.0000
 77   4   0.0000   0.0082   0.0000   0.0000   0.0000
 84  85   0.0000   0.0275   0.0000   0.9600   0.0000
 86  87   0.0000   0.0137   0.0000   0.9800   0.0000
 80  43   0.0000   0.0726   0.0000   0.0000   0.0000
 81  44   0.0000   0.0770   0.0000   0.0000   0.0000
 83  46   0.0000   0.0462   0.0000   0.0000   0.0000
 84   5   0.0000   0.0160   0.0000   0.0000   0.0000
 86  18   0.0000   0.0164   0.0000   0.0000   0.0000
 78  88   0.0000   0.0275   0.0000   0.9700   0.0000
 89  90   0.0000   0.0065   0.0000   0.9800   0.0000
 89   7   0.0000   0.0164   0.0000   0.0000   0.0000
 90   8   0.0000   0.0331   0.0000   0.0000   0.0000
 90   9   0.0000   0.0098   0.0000   0.0000   0.0000
 92  93   0.0000   0.0111   0.0000   0.9700   0.0000
 96  10   0.0000   0.0131   0.0000   0.0000   0.0000
 97  11   0.0000   0.0505   0.0000   0.0000   0.0000
105  12   0.0000   0.0426   0.0000   0.0000   0.0000
104 105   0.0000   0.0870   0.0000   0.0000   0.0000
 98 100   0.0000   0.0111   0.0000   0.9800   0.0000
100  99   0.0000   0.0435   0.0000   0.0000   0.0000
 99  13   0.0000   0.0389   0.0000   0.0000   0.0000
 99  14   0.0000   0.0999   0.0000   0.0000   0.0000
102 109   0.0000   0.0062   0.0000   0.9800   0.0000
108  45   0.0000   0.0084   0.0000   0.0000   0.0000
 71  72   0.0000   0.0291   0.0000   0.9800   0.0000
110  15   0.0000   0.0110   0.0000   0.0000   0.0000
111  16   0.0000   0.0326   0.0000   0.0000   0.0000
110 112   0.0000   0.0170   0.0000   0.0000   0.0000
112  17   0.0000   0.0172   0.0000   0.0000   0.0000
114 116   0.0000   0.0110   0.0000   0.0000   0.0000
121 122   0.0000   0.0190   0.0000   0.9800   0.0000
122  23   0.0000   0.0620   0.0000   0.0000   0.0000
118 119   0.0000   0.0110   0.0000   0.0000   0.0000
189 190   0.0000   0.0190   0.0000   0.0000   0.0000
127 128   0.0000   0.0110   0.0000   0.9800   0.0000
130 131   0.0000   0.0190   0.0000   0.9800   0.0000
128  19   0.0000   0.0101   0.0000   0.0000   0.0000
133  21   0.0000   0.0628   0.0000   0.0000   0.0000
117  22   0.0000   0.0344   0.0000   0.0000   0.0000
129  24   0.0000   0.0163   0.0000   0.0000   0.0000
124 125   0.0000   0.0110   0.0000   0.0000   0.0000
131  20   0.0000   0.0661   0.0000   0.0000   0.0000
136  25   0.0000   0.0325   0.0000   0.0000   0.0000
141 140   0.0000   0.0190   0.0000   0.0000   0.0000
138  27   0.0000   0.0314   0.0000   0.0000   0.0000
137  26   0.0000   0.0520   0.0000   0.0000   0.0000
151  31   0.0000   0.0314   0.0000   0.0000   0.0000
146 147   0.0000   0.0173   0.0000   0.9800   0.0000
143 145   0.0000   0.0385   0.0000   0.0000   0.0000
145  29   0.0000   0.1089   0.0000   0.0000   0.0000
143  30   0.0000   0.0314   0.0000   0.0000   0.0000
158 156   0.0000   0.0339   0.0000   0.9800   0.0000
169 170   0.0000   0.0210   0.0000   0.9800   0.0000
158 157   0.0000   0.0210   0.0000   0.9700   0.0000
181 180   0.0000   0.0510   0.0000   0.9900   0.0000
171 172   0.0000   0.0231   0.0000   0.0000   0.0000
 28 174   0.0000   0.0410   0.0000   0.0000   0.0000
177 178   0.0000   0.0268   0.0000   0.9800   0.0000
176  41   0.0000   0.1145   0.0000   0.0000   0.0000
162  42   0.0000   0.1500   0.0000   0.0000   0.0000
161 162   0.0000   0.0516   0.0000   0.0000   0.0000
175  40   0.0000   0.0316   0.0000   0.0000   0.0000
175 176   0.0000   0.0460   0.0000   0.0000   0.0000
164  37   0.0000   0.0198   0.0000   0.0000   0.0000
163  38   0.0000   0.0150   0.0000   0.0000   0.0000
165  39   0.0000   0.0082   0.0000   0.0000   0.0000
163 164   0.0000   0.0210   0.0000   0.0000   0.0000
180  32   0.0000   0.0280   0.0000   0.0000   0.0000
180  33   0.0000   0.0280   0.0000   0.0000   0.0000
185 186   0.0000   0.0104   0.0000   0.9700   0.0000
186  34   0.0000   0.0282   0.0000   0.0000   0.0000
120  35   0.0000   0.0108   0.0000   0.0000   0.0000
120  36   0.0000   0.0163   0.0000   0.0000   0.0000];